Geom Title=R8_It4_Unsteady
Program Version=5.00
Viewing Rectangle=-5514858.59316987 ,-5348085.86203103 , 9271658.92483001 , 9229991.29240189 

BEGIN GEOM DESCRIPTION:
Modifications included raising channel n values from 0.019 to 0.025.
END GEOM DESCRIPTION:
River Reach=Snake River     ,Reach08         
Reach XY= 190 
-5350022.48892549232668.50338234-5350370.6450533 9232593.7167865
-5350850.87342359232632.82431984-5353110.06247479234486.63754134
-5353256.7009609  9234616.025734-5353543.12722549234868.73421809
-5353813.26612089235140.73072134-5354373.13245519235729.07895409
-5355211.60879659236575.47194634-5355694.3850619 9236503.4884945
-5356079.56736249236942.84653967 -5356293.2893769237305.84482942
-5356489.37658229237638.94455692-5356495.13017969237648.71717517
-5356795.85398769238463.14927334-5356848.62783229238605.99839709
-5357233.32949069239761.44326467-5357241.82980179239797.15349508
-5357558.7638791  9241135.894584-5357567.31012199241470.24726175
-5357570.44495819241591.60791142-5357595.08565699242557.59154375
-5357618.4081168  9243468.752123-5357620.8716945  9244556.958608
-5357641.84803059244730.54060992 -5357678.7593749245036.02687559
-5357757.51938719245687.43370925-5357569.35309689246516.22601492
 -5357668.1767189247540.08617192-5358044.99354979248389.08250542
-5358245.46755829248813.86971359-5358641.54202649249431.23882913
-5358866.29931169249946.61365821-5359175.25711049250204.30107275
-5359933.72947979250953.93718777-5360397.44586589251300.80601267
-5360757.02160059251539.59040264-5361316.87268659251750.42555999
-5362198.43045289251852.75536808-5362872.99143969251837.96635567
-5363157.00563549251831.75376967 -5364806.725105 9251315.5769805
-5365549.02939469251083.35270742-5365656.9169741  9251049.626725
-5366042.44966769250861.87841284-5367069.18711559250361.90303484
-5368227.75336799249400.89905133-5368816.79783719248541.04594253
-5369192.20989469248119.37562783-5369988.99526699247580.57467016
-5370258.5442457 9247393.1656414-5370608.08771419247229.18274124
-5370957.44643199247088.09556676-5371199.31015959246980.60057668
-5371380.70795539246899.97933412-5371683.03761499246732.01841212
-5371965.21196389246624.52342204-5372959.54062219246302.03845181
-5373214.84122359246281.88314117-5373866.52960099246181.10658797
-5374141.98551299246194.54346173-5374477.90735699246261.72783053
-5374706.33421099246288.60157805-5378240.2315943 9247262.7749207
-5378683.64842849247511.35708526-5379489.27743279247862.40508109
 -5379980.0218589248157.48782425-5380336.38390089248331.00638461
-5380631.99512369248411.62762717-5381512.11035489248727.39416053
-5382689.97083449248974.29098067-5382942.85615559249003.43101425
-5383108.97688629249013.84372308-5384118.40104859249077.03683817
 -5385379.998919  9249091.544027-5385830.45307059249096.77990892
-5387129.2024415 9249062.7625885-5387853.4457437  9249043.788217
-5388615.9225652  9248969.859231-5388902.67428839248942.03317117
-5389666.91521399248867.94539284 -5390817.145291 9248821.4523156
-5393630.5657511 9248998.6682285-5395479.74048579249432.83007168
-5397125.75752129250024.05251711-5398106.64930579250319.66373983
-5398758.33768319250669.02245759 -5399827.5136599251593.06559875
-5400163.56679279251922.74801025-5400838.92600639252893.92749834
-5400862.52569669252927.86804725-5401639.39290939254429.94936067
-5401779.61244519254838.60307092-5402011.76618039255515.35827909
-5402287.4083455 9256318.8779975-5402574.18270649257485.83399692
-5402651.34068859257799.77956325-5402957.38961719258743.75208475
-5402978.81378699258809.87006275 -5403594.5530419260170.00776242
-5403670.17067199260336.97199542-5404457.52080329261329.63503633
-5405200.38972439261903.69327142 -5406553.3305889262628.90737217
-5406864.59210459262795.70034567 -5407157.3963099262894.12764225
-5409278.89305029263607.07175442 -5410166.9063669263801.63140467
-5411006.0405145  9263907.632505-5412423.63836949264166.36213594
-5413471.71452279264334.32305794-5415057.26562639264461.97335866
-5416992.17544789264676.96333882-5419296.59929769264905.39019274
-5420861.99509069265039.75893033-5423482.18546769265227.87518555
-5425880.66743389264818.05053587-5428279.14939999264025.27498404
-5430146.87485259263339.99442228-5431315.88286969262547.21887045
-5432108.65844019261895.53052098-5432693.16244869261398.36619187
-5433270.94802039260565.28001876-5433479.21956369260309.97941732
-5434015.72382589259387.92435284-5434063.53376959259286.89273075
-5434093.32570479259224.10348625-5435091.6444582 9257232.9354751
-5436435.33183429254431.34729617-5436966.08834779252939.85430882
 -5439326.4149769249491.77780658-5439858.32500159248937.58829817
-5441151.67466819247538.23130456-5442683.47827679246517.02889881
-5443200.79791659246207.98080233-5444222.00032229245636.91366754
 -5445109.6038699245157.30812908-5445352.20902689245007.60075134
-5445690.65126339244798.74651025-5447450.7599478 9244077.3631105
-5448648.83366719243854.78776825-5448901.49917239243807.86200909
-5449262.75533959243740.73714333-5451037.8379845 9243837.6000356
-5454411.52715539244829.86155641 -5457677.7213289246004.03768938
-5459736.66361439246533.24361334-5461514.4655058 9246723.4270715
-5462341.35010649246640.73861143-5464879.8858305 9245631.9393986
-5466450.96658999244507.37652916-5467641.68041499243448.96424029
-5468402.41424759242539.39117954 -5468981.2334689241695.96888685
-5469427.75115239240629.28775198-5469820.48883039239617.34512767
-5470201.00841059238252.72154459-5471166.01062799236990.99520197
-5472927.27482739236164.11060129-5475374.85324539236048.34675719
-5477160.92398289236213.72367733-5478186.26088769236503.13328757
-5479659.32479569237191.93528033-5480829.36576269237618.49282617
-5481766.67103169238065.94520291-5483131.03062279238934.17403362
-5484553.27213599239529.53094611-5485818.40557499239967.77978447
 -5487166.2274749240191.03862665-5488702.43067139240207.57627051
-5490256.97372059240356.41549863-5492415.1425283 9240439.1039587
-5496303.29610089240851.86824917-5497359.15553769241082.04725075
-5501373.69278419242494.05656584 -5501998.4313649242552.47409992
-5502692.72820389242617.37718533-5503036.14287139242649.44142567
-5504918.89304289242700.04467092-5505222.27399779242735.29460042
-5506705.39767199242746.35494575-5506863.16736959242713.96721525
-5507072.32311919242717.98754842-5509435.99785379242718.10270567
 -5509632.8058599242716.71392892-5509902.50873179242703.45476909
-5511235.87876849242380.04432667 -5511951.6516159242084.24012825
-5512723.80262989241765.26307592 -5513223.5663949241613.14822267
Rch Text X Y=-5390822.7582926,9234904.6645924
Reverse River Text= 0 

Type RM Length L Ch R = 1 ,106.6178,1885,1735,1740
BEGIN DESCRIPTION:
XS DS of Lower Granite Dam. Computation Point Location used to create stage-discharge rating curve.
END DESCRIPTION:
XS GIS Cut Line=5
-5355804.42125929234331.73955717-5355689.9618425  9234604.261978
-5355515.54749319235051.19842009-5354011.22405829236637.27890934
-5353504.33235559237460.29629217
Node Last Edited Time=Sep/11/2014 08:31:46
#Sta/Elev= 494 
       0 1248.35     6.5 1242.53    9.74 1240.33   16.24 1236.47   19.49 1234.86
   22.74 1232.37   25.99  1229.4   29.23 1227.24   38.98 1222.32   42.23 1220.37
   55.22 1211.33   61.72 1206.68   64.96 1203.49   71.46 1193.25   74.71 1188.59
   77.96 1184.41    81.2 1180.65    87.7 1174.42    94.2 1167.55   97.45 1164.87
  107.19 1158.28  110.44 1155.71  116.93 1150.09  120.18 1147.11  123.43 1144.46
  133.17  1137.2  139.67 1133.13  146.17 1128.53  155.91  1122.1  165.66 1117.28
   168.9 1116.09  172.15 1114.27  178.65 1109.87   181.9 1107.96  185.15 1106.66
  188.39 1105.71  194.89 1104.21  207.88 1102.58  211.13 1102.51  217.63 1103.15
  224.12 1104.31  237.12 1105.63  240.36 1105.36  246.86 1104.25  253.36 1102.63
  256.61 1101.55  259.85 1099.67   263.1 1097.34  266.35 1094.49  272.85 1087.66
  276.09 1084.06  279.34  1081.8  282.59  1080.2  289.09 1077.77  292.33 1075.82
  305.37 1065.59  308.64 1061.74   311.9 1051.02  315.17 1033.94  318.43 1016.51
  321.69 1001.33  324.96  990.44  328.22  981.25  331.48   969.6  334.75  955.92
  338.01  944.15  344.54  922.52   347.8  917.55  351.07  915.56  354.33  914.09
  360.86  911.61  364.12  910.05  370.65  905.95  373.91  903.67  380.44  900.37
   383.7  898.98  390.23  896.52  396.76  893.83  403.29  890.49  406.55  888.11
  413.08  882.57   419.6  876.39  432.66  862.77  439.19  856.94  445.71  850.35
   455.5  841.59  458.77  839.26  462.03  837.47  471.82  832.77  478.35  830.34
  491.41  826.22  494.67  825.41  497.93  824.27  504.46  820.97  507.72  818.91
  514.25  812.86  517.51  808.66  520.78  799.74  524.04  786.56  527.31  771.33
  530.57  759.69  533.83  751.26   537.1  746.21  543.62  737.93  546.89  733.21
  550.15  728.03  556.68  719.57  563.21  709.27  566.47  705.52  569.73   703.1
  576.26  699.42  582.79  695.43  592.58  690.13  595.84     688  602.37  684.72
   608.9  681.84  618.69  678.09  621.95  676.69  628.48  673.24  631.74  672.17
  638.27  671.89  648.06  671.27  666.58  670.22  677.44  669.57   680.7   669.1
  683.96  668.17  687.23  666.82  697.02  662.21  700.28  660.96  703.55  660.23
  710.07  659.93  723.13  659.83  729.65  660.06  745.97  660.09  759.03  660.03
  773.42  659.69  778.62  659.21  785.18  659.08  795.01  659.41  804.84  659.44
  814.67  659.24  817.95  658.77  821.23  657.61  827.78  654.64  834.34  652.26
  837.62  650.83  847.45  644.68     854  641.39  860.56  639.09   861.4  636.83
  867.11  635.64   883.5  628.36  890.05  624.71  899.89  620.64  903.16  619.52
     913   617.9  919.55  616.37  929.38  614.84  935.94   614.1  942.49   613.1
  952.32  610.94  962.16  610.15  971.99  609.12  978.54  608.82  981.82  608.91
  988.37  609.67 1004.76  612.44 1014.59  614.21 1024.43  616.28 1030.98  617.98
 1040.81  620.09 1047.37  621.16  1057.2  622.43 1067.03  622.81 1073.59  622.81
 1083.42  622.44 1089.97  621.79 1099.81  621.18 1116.19  619.67 1132.58  618.38
 1142.41  617.43 1155.52  616.92 1171.91  616.54 1175.19  616.33 1181.74  615.43
 1191.57  614.35 1198.13  613.93 1214.52  613.16 1224.35  613.06  1230.9  612.85
 1250.57  612.67 1263.68  612.49 1273.51  612.82 1280.06  612.81 1296.45  612.51
 1312.84  611.87 1319.39  611.42 1335.78  611.76 1345.61  611.42 1352.17  611.68
    1362  611.64 1375.11  611.02 1381.66   610.9  1391.5   611.3 1401.33  611.46
 1411.16  611.22 1417.72   611.5 1430.83  611.55 1440.66  611.79 1450.49  611.84
 1460.32  612.07 1479.99  611.51 1489.82     612  1493.1  612.05 1502.93  611.82
 1522.59  611.67 1532.43  611.33 1542.26  611.68 1552.09  611.54 1571.75   611.6
 1581.59  611.33 1597.97  611.07 1607.81  610.66 1617.64   609.7 1620.92  609.67
 1634.03  609.95 1640.58  609.96 1653.69  609.65  1666.8  609.62 1676.63  609.47
 1686.46  608.96  1696.3   609.1 1706.13  608.92 1715.96  608.86 1725.79  608.99
 1735.63  608.95 1745.46  609.42  1768.4  609.59 1778.23  609.53 1788.06  609.15
 1804.45  609.21 1827.39   609.6 1837.22  608.73 1847.06  608.44 1856.89  608.39
    1870  608.16 1883.11  608.15 1892.94   607.3 1902.77  607.46 1909.33     607
 1912.61  606.97 1919.16  607.32 1928.99  607.06 1945.38   607.1 1961.77  606.79
 1974.88  606.17 1978.15  606.42 2030.59  612.59 2033.87  612.87 2040.42  612.79
 2053.53  613.06 2066.64   613.2 2076.48  613.09 2083.03  613.32 2092.86  613.46
  2102.7  613.72  2115.8  614.41 2125.64  614.51  2145.3   614.2 2148.58  614.36
 2168.24  616.27  2174.8  617.37 2191.19   619.9 2197.74  620.77 2210.85  622.19
  2217.4  622.41 2230.51  622.37 2240.35   622.5 2253.46  621.86 2263.29  621.61
 2273.12  621.21 2289.51  620.19 2302.62  619.21    2319  618.55 2338.67   617.2
 2358.33  616.17 2368.17  615.51 2381.28   614.5 2391.11   613.6 2417.33  611.87
 2423.88  611.63 2440.27  611.48 2446.82  611.21 2459.93  610.88 2476.32  609.65
 2489.43  608.51 2502.54  607.26 2515.65  606.77  2522.2     607 2525.48  606.56
 2528.76  606.52 2535.31  607.25 2541.87  606.84 2554.98  606.61 2574.64  606.56
 2584.48  606.63 2600.86  606.63 2620.53  606.49 2630.36  606.72 2643.47  606.64
 2656.58  606.65 2669.69  606.79  2682.8  606.65 2702.46  607.02 2712.29  606.95
 2728.68  607.13 2738.51  607.31 2748.35   607.2 2758.18  606.86 2774.57  607.14
  2784.4  607.63 2790.95  608.36 2794.23  608.92 2800.78  610.49 2804.06  611.56
 2817.17  616.33    2827  619.75 2833.56  622.43 2840.11  624.84 2843.39  625.79
 2849.95  627.29 2853.22  628.29 2863.06  632.01 2869.61  634.94 2872.89  636.02
 2878.03  638.48 2879.44  639.25 2882.72  639.92 2892.55  642.26 2899.11  643.46
 2902.38  644.68 2905.66  646.25 2912.22  650.08 2915.49  651.78 2918.77  653.15
 2922.05  653.95 2925.33  654.38 2935.16  654.48 2944.99  654.86 2951.55  654.76
 2964.65  654.24 2974.48  654.29 2977.76   654.9 2981.04  656.16 2987.59  659.26
 2990.87  661.05 2994.14  662.34 2997.42  662.82 3017.08  663.56 3030.19  663.65
 3046.57   663.6 3059.68  663.68 3066.23  664.23 3069.51  665.22 3072.78  666.76
 3079.34   670.6 3082.61  672.26 3085.89  673.45 3098.99  676.92 3102.27  678.42
  3112.1  684.24 3118.65  687.86 3121.93  689.84 3128.48  694.32 3141.59   701.9
 3148.14  706.05 3151.42   707.1  3154.7  707.48 3164.53   707.3 3190.74   707.4
 3197.29  707.24 3207.12  706.44 3216.95  706.82 3223.51  707.54 3226.78  708.32
 3233.34  710.82 3249.72  718.29 3256.27  721.35 3269.38  728.12 3282.48  734.52
 3292.31  739.43 3302.14  744.48  3308.7  747.63  3321.8  754.26 3331.63  760.08
 3334.91  761.79 3338.19  763.01 3341.46  763.77 3344.74  764.04 3354.57   764.2
 3367.68  764.11 3370.95  763.93 3377.51  762.78 3380.78  762.94 3384.06  763.67
 3387.33  763.97 3397.16  763.99 3406.99  764.47 3410.27  764.04 3413.55  762.77
 3416.82  761.08 3426.65  755.52 3433.21  752.09 3439.76  748.95 3446.31  746.08
 3449.59  744.97 3452.87  745.33 3459.42  746.99  3462.7   747.4 3469.25  747.44
 3472.53  747.04 3482.36  745.02 3485.63  744.72 3488.91  745.28 3495.46  747.29
 3498.74  748.89 3502.02  751.57 3505.29  755.96 3511.85  767.52 3515.12  772.19
  3518.4  776.46 3521.68  780.37 3528.23  786.21 3534.78  792.42 3538.06  795.81
 3541.33   800.5 3547.89  813.27 3551.16  820.66 3554.44  829.51 3557.72  837.04
 3560.99   840.2 3567.55  843.56  3574.1   847.2 3580.65  850.44 3590.48  854.22
 3593.76  855.96 3597.04  858.15 3600.31  861.17 3603.59  864.92 3606.87  868.33
 3610.14  870.36  3616.7  873.35 3619.97  874.57  3629.8  877.27 3636.36  878.91
 3642.91  880.23 3646.19  881.09 3649.46  882.53 3652.74  884.56 3662.57  891.61
 3665.85   894.1 3669.12  897.08 3675.68  903.64 3682.23  909.49 3695.33  919.54
 3698.61  922.25 3701.89  925.81 3705.16  931.64 3711.72  948.95 3714.99  955.62
 3718.27  960.68 3721.55  964.72 3724.82  967.79  3728.1  970.04 3734.65  973.94
 3751.04  981.75 3760.87  986.59  3770.7  992.83 3780.53  998.58 3787.08  1001.9
 3796.91 1006.14 3803.46 1009.17 3813.29  1013.9 3832.95 1021.98 3842.78 1026.93
 3849.33 1029.96 3862.44 1035.42 3868.99 1038.66 3872.27 1039.92 3878.82  1042.1
 3905.04 1050.12 3918.14 1053.66  3924.7 1055.63 3927.97  1056.4
#Mann= 6 ,-1 , 0 
       0     .05       0  666.58      .1       0  773.42     .05       0
   861.4    .029       0 1067.03    .024       0 2878.03     .05       0
#XS Ineff= 1 ,-1 
    1980    4000     700
Permanent Ineff=
       T
Bank Sta=861.4,2878.03
XS Rating Curve= 0 ,0
XS HTab Starting El and Incr=606.67,0.2451, 200 
XS HTab Horizontal Distribution= 5 , 5 , 5 
Exp/Cntr=0.5,0.3

Type RM Length L Ch R = 1 ,106.2496,2427.49,2172.33,1875.54
XS GIS Cut Line=5
-5357548.5644245  9235677.999988-5357161.5825869  9235939.621512
-5356523.88045029236642.72935775 -5355553.7006329237416.69270483
-5354534.46677819238234.25996733
Node Last Edited Time=Sep/11/2014 08:31:46
#Sta/Elev= 495 
       0 1507.76    6.53 1504.67   16.33 1499.05   22.87 1495.88   26.13 1494.14
   35.93 1489.28   42.47 1486.31   52.27 1482.97    58.8 1481.31    68.6 1478.31
    78.4 1474.78   84.93 1472.09    88.2 1471.09      98 1468.76  104.53 1466.35
   107.8  1464.7   117.6 1459.11   127.4 1454.36  140.46 1448.72  153.53 1443.87
   156.8 1442.32  163.33 1439.55  179.66 1433.93  189.46 1431.16  195.99 1429.77
  205.79  1428.9  215.59 1426.78  222.13 1425.81  228.66 1423.78  235.19 1421.45
  244.99 1416.24  251.53 1411.89  254.79 1410.37  264.59 1407.63  267.86 1405.99
  271.13 1404.73  274.39 1403.81  280.93 1402.57  290.73 1400.36  293.99 1399.77
  300.52 1398.22  310.32  1394.9  320.12 1391.72  336.46 1386.97  342.99 1384.98
  349.52 1383.49  356.06 1382.24  362.59 1380.71  372.39 1378.15  378.92 1376.73
  385.46  1375.6  391.99 1374.01  398.52 1372.91  405.05 1371.18  408.32 1369.85
  411.59 1368.16  418.12 1365.16  424.65 1361.17  431.19 1357.89  444.25 1349.47
  447.52  1346.8  450.79 1343.67  454.05  1341.2  463.85 1336.43  470.39 1332.71
  473.67 1330.65  476.94 1327.79  480.21 1324.32  486.76 1318.69  493.31  1313.8
  503.12  1307.9  509.67 1304.33  516.22 1300.41  522.76 1295.94  529.31 1290.62
  535.86 1284.59   542.4 1280.02  552.22 1272.48  562.04 1263.99  571.86  1256.5
  578.41 1251.04  584.95 1246.14  594.77 1239.64  604.59 1232.91  611.14 1228.54
  620.96 1221.76  624.23 1218.94  627.51 1215.13  630.78 1211.71  637.32 1207.06
  647.14 1199.15  656.96 1189.83  660.24 1186.54  663.51 1183.71  666.78 1181.23
  673.33 1177.07  686.42 1167.91   689.7 1163.64  696.24 1153.18  702.79 1143.63
  709.33 1136.22  715.88 1127.61  719.15 1124.68  728.97 1117.19  738.79 1110.08
  745.34 1105.58  751.89 1099.21  755.16 1095.59  761.71 1086.99  768.25 1079.45
  771.52 1074.57   774.8 1068.86  778.07    1066  781.34 1063.59  784.62 1060.54
  791.16 1051.68  794.44 1048.37  800.98 1043.57  807.53 1038.12  814.08 1032.39
  817.35 1029.69   823.9 1024.79  827.17 1022.62  836.99 1016.75  843.53  1013.3
  853.35 1008.95  856.63 1007.02  869.72  998.88  879.54  992.43  882.81   989.2
  886.09  984.08  889.36  976.12  892.63  969.94  895.91  967.43  899.18  966.62
  905.72  963.93  912.27  958.72  915.54  956.52  918.82  953.43  922.09  950.85
  925.36  948.85  931.91  945.67  935.18   944.6  938.46  944.32  948.28  940.79
  951.55  940.48  954.82  940.76  964.64  942.11  967.92  943.09  971.19     943
  974.46   941.8  977.73  940.11  981.01  936.58  984.28   928.6  987.55  915.18
  990.83  900.73   994.1  885.68  997.37  879.34 1000.65  876.59 1010.47  869.51
 1017.01  864.15 1026.83  856.68 1036.65  847.49 1039.92  844.68 1046.47  839.83
 1056.29   831.4 1062.84  825.41 1066.11  822.89 1072.66  817.05 1082.48  809.07
 1089.02  803.49 1102.12   793.1 1118.48  781.25 1125.03  777.19 1138.12  768.52
 1144.67  763.95 1154.49  756.73 1167.58  747.86  1177.4   740.4 1183.94  734.97
 1190.49  730.19 1197.04  725.76 1206.86  719.49  1213.4  714.94 1223.22  707.45
 1233.04  700.76 1236.31  698.24 1242.86  693.84 1252.68  687.01 1259.23  681.51
  1262.5  678.54 1269.05  671.21 1272.32   667.2 1275.59  664.07 1278.87  662.46
 1285.41  660.35 1288.69  660.11 1295.23  661.38 1298.51  661.72 1305.05  661.92
 1318.14  661.93 1324.69  662.36 1344.33   661.7 1350.88  661.76 1373.79   661.6
 1383.61  661.69  1396.7  661.49 1409.79  661.49 1416.34  661.58 1442.54   660.9
 1455.63  660.52 1458.91  660.03 1462.18  657.66 1465.46  654.41 1468.73  650.79
 1472.01  647.54 1475.28  644.93 1478.56   643.1 1485.11  640.31 1486.92  639.78
 1494.93  637.71 1504.75  634.74  1524.4     629 1527.68  628.14  1537.5  626.01
  1550.6   622.6 1560.42  620.56 1570.25     619 1580.07   618.2 1589.89  617.92
 1606.27  617.91 1625.91  617.63 1639.01  617.69 1652.11  617.53 1661.94  617.65
 1668.48  617.87 1678.31  617.55 1688.13  617.42 1704.51  617.41 1714.33  617.33
  1730.7  617.42 1747.08   617.6  1756.9  617.88    1770  618.01  1783.1  618.27
 1792.92  618.12 1806.02  618.12 1815.84  618.38 1835.49   618.6 1861.69  618.73
 1881.33  619.06 1891.16  619.33 1907.53  619.51 1917.35   619.7 1927.18  619.73
    1937  619.91 1946.83  619.95 1953.38   620.1  1963.2  620.56 1973.02   620.7
 1992.67  620.78 2002.49  620.68 2015.59  621.04 2022.14  620.97 2038.52  620.22
 2054.89  619.96 2064.71  619.65 2077.81  619.02 2084.36  618.54 2094.18  617.62
 2110.56  616.73 2120.38  615.28  2130.2  614.26 2140.03  612.94 2149.85  612.35
  2156.4  611.63 2166.23  609.88 2176.05  608.64  2182.6  608.21 2189.15  608.12
 2202.25  608.19 2218.62  607.82 2238.27  607.12 2248.09  607.04 2267.74  607.17
 2274.29  607.28 2280.84  607.63 2290.66  608.36 2300.48  608.59 2310.31  608.51
 2316.86  608.83 2326.68  608.95  2336.5  609.44 2346.33  610.31 2352.88  610.56
  2362.7   610.7 2372.53  610.62  2388.9  610.37  2415.1  610.91 2424.92  611.76
 2431.47     612 2434.74  612.28 2441.29  613.32 2451.12  615.12 2464.21  616.42
 2474.04  618.45 2477.31  619.54 2483.86   622.1 2493.69  626.26 2500.24  629.58
 2510.06   632.9 2516.61  635.68 2531.45  640.03 2536.26  641.09 2549.35  642.79
 2559.18  644.39 2565.73   645.9    2569  647.12 2575.55  650.88 2578.83  652.31
  2582.1  652.73 2585.38   652.8 2598.47  652.63 2605.02  652.85 2611.57  652.71
 2618.12  652.38 2627.95  652.14 2637.77  651.79 2650.87  651.67 2660.69  651.85
 2663.97  652.23 2670.52  654.78 2673.79  656.66 2677.07  659.65 2683.61     665
 2690.16  669.78 2693.44  671.78 2699.99  676.38 2706.54  681.56 2709.81   683.5
 2713.09  684.82 2716.36  685.24 2719.64  685.14 2736.01  685.65 2742.56     686
 2745.84  686.46 2752.39  688.03 2758.94  690.18 2765.48  692.75 2772.03  695.76
 2778.58   698.6 2785.13   701.2 2788.41  702.33 2794.96  704.91 2808.06  709.17
 2821.16  714.01 2837.53  719.13 2847.35  721.69 2857.18  723.75    2867  726.08
 2873.55  727.32 2876.83  727.67 2889.93  727.48 2899.75  728.04 2916.12   727.1
  2919.4  726.82 2925.95   726.7 2929.22  726.26 2939.05  725.53 2942.32   725.5
  2945.6  725.78 2955.42  727.52  2958.7   727.7 2968.52  727.23 2978.35  727.09
  2984.9  726.62 2988.17  726.65 2994.72  727.42 3017.64  726.79 3034.02  726.99
 3053.67  727.08 3056.94  727.01 3070.04  727.66 3083.14  729.09 3089.69  729.29
 3102.79     729 3112.61  729.16 3122.44  729.81 3125.71   729.9 3132.26  729.67
 3145.36  729.86 3151.91  730.43 3165.01  730.38 3174.83  730.65 3178.11  730.96
 3191.21  731.88 3207.58  732.92 3210.86  733.28 3220.68   733.7  3230.5  734.47
 3237.05   734.8  3243.6   735.4 3250.15  735.61  3256.7  736.13  3269.8  736.92
 3276.35   737.4 3286.18  737.67 3292.73   738.2 3305.82  738.74 3318.92  739.78
  3335.3  740.77  3348.4  741.63 3354.95  741.93 3364.77  742.54 3394.24  743.84
 3400.79  743.87 3417.17  744.46 3423.72  744.21 3426.99   744.4 3430.27  745.14
 3436.82  747.56 3440.09  747.83 3449.92  745.18 3453.19  744.83 3459.74  745.67
 3482.66   745.2 3485.94  745.02 3492.49   743.9 3495.76   743.9 3499.04  744.75
 3502.31  746.15 3508.86  749.59 3515.41  753.48 3518.69  755.03 3521.96  755.31
 3531.78  755.65 3544.88  756.98 3551.43  757.55 3557.98  757.94 3577.63  759.38
 3587.46  760.06 3600.56  761.03 3607.11  761.29 3613.65  761.85 3616.93  761.73
  3620.2  760.82 3630.03  755.82 3636.58  752.77  3646.4  747.77 3652.95  744.29
 3656.23  742.76  3659.5  741.79 3662.78  741.79 3669.33  743.53  3672.6   743.8
 3679.15  743.33  3685.7  742.06 3688.97  741.64 3692.25  741.93  3698.8  745.03
 3708.62  749.52    3725  757.96 3728.27  759.44  3738.1   764.5 3747.92  769.41
 3757.75  774.77 3761.02  776.29 3764.29   777.2 3770.84  778.19 3787.22  779.66
 3793.77  780.02 3806.87  781.12 3813.42   782.3 3823.24   784.9 3826.52  785.36
 3839.61  786.45 3846.16  786.79 3852.71  787.35 3859.26  788.07 3862.54  788.62
 3875.64  790.36 3885.46  790.44 3895.29  791.76 3898.56   792.4 3901.84  793.41
 3908.39  796.61 3914.94  799.16 3921.48  802.42 3924.76  803.01 3931.31   804.5
 3937.86  805.54 3944.41  807.07 3947.68  807.32 3957.51  805.78 3964.06  805.83
#Mann= 3 ,-1 , 0 
       0     .05       0 1486.92    .024       0 2531.45     .05       0
Bank Sta=1486.92,2531.45
XS Rating Curve= 0 ,0
XS HTab Starting El and Incr=607.54,0.23805, 200 
XS HTab Horizontal Distribution= 5 , 5 , 5 
Exp/Cntr=0.3,0.1

Type RM Length L Ch R = 1 ,105.8381,3825.72,3787.01,3512.23
XS GIS Cut Line=5
 -5358916.6269779238893.76422575-5358142.66330199238964.62005517
-5357445.00590459238790.20570584-5356480.2768629 9239139.0344045
 -5355134.0161049239782.18698959
Node Last Edited Time=Sep/11/2014 08:31:46
#Sta/Elev= 495 
       0  1275.7    9.84    1274   22.96  1271.3   26.23 1270.46   32.79 1268.35
   39.35 1266.56   42.63 1265.84   55.75 1263.72   65.59 1262.67   75.42 1261.14
   98.38 1258.04  101.66 1257.15  108.22 1254.74  114.78 1252.59  131.17 1248.45
  137.73 1247.34  141.01 1247.01  150.85 1245.49  157.41  1244.7  163.97 1243.69
  170.53 1242.98  177.08 1241.85   190.2 1240.59  196.76 1239.82  203.32 1239.21
  219.71 1237.36  222.99 1236.68  229.55 1234.52  232.83 1233.61  239.39  1232.2
  245.95 1231.18  252.51  1230.4  259.07 1229.84  275.46 1228.67  278.74 1228.27
   285.3 1226.78  288.58 1225.72  295.14 1223.08   301.7 1220.13  304.98 1218.47
  311.54 1214.38  314.82 1212.69  321.37 1209.79  331.21 1206.18  341.05 1203.17
  347.61 1201.68  350.89  1201.1  364.01 1199.44  370.56 1198.45   380.4  1196.5
  390.24 1194.25   396.8 1193.04  409.92 1191.19  416.47 1189.96  432.87 1185.74
  439.43  1183.8  445.99 1182.17  465.66 1178.19   475.5 1176.09  482.06 1174.91
  498.46 1172.19  521.41 1167.89  531.25 1166.52  541.09 1165.31  550.93 1163.99
  560.76  1162.5  573.88 1160.92  580.44 1160.05  590.28 1159.03  596.84 1158.52
  606.68 1157.34  613.23  1156.7  626.35 1155.23  636.19 1154.52  642.75 1154.24
  655.87 1153.32   665.7 1152.91  678.82 1151.65  688.66  1150.9  695.22 1150.14
  705.06 1149.19  714.89 1148.05  721.45 1147.59  728.01 1146.86  737.85 1145.54
  744.41 1144.48  754.25 1143.18  764.08 1141.31   777.2 1138.58  783.74 1137.41
  790.28 1135.97  796.81 1134.23  809.89    1130  813.16 1128.63   819.7 1125.32
  822.96 1122.92  826.23 1118.87   829.5 1113.66  832.77 1109.08  836.04 1105.83
  839.31 1103.41  845.85 1099.01  852.38 1094.13  855.65 1091.99  865.46 1086.14
  868.73 1084.03     872 1081.24  875.26  1077.4  878.53    1074  885.07 1068.43
  888.34 1066.03  894.88 1061.67  901.41 1054.01  904.68 1049.56  907.95 1044.14
  911.22 1038.32  914.49 1030.54  917.76 1021.17  921.03 1010.64   924.3  999.13
  927.56  992.55  930.83  989.22  937.37  983.45  940.64  980.11  943.91  975.09
  947.18  967.43  950.45  958.87  953.71  951.91  960.25  941.08  966.79  930.74
  970.06  925.19  973.33  919.16   976.6  914.05  979.86  909.44  983.13  901.37
   986.4  889.64  989.67  872.79  992.94  860.11  996.21  856.23  999.48  854.21
 1006.01  849.59 1009.28  847.04 1012.55  844.83 1019.09  840.76 1025.63  837.34
 1032.16  832.74  1038.7   828.7 1045.24  824.14 1055.05  818.27 1061.58  814.94
 1068.12  811.08 1074.66  806.54  1081.2   802.2 1087.73  798.18 1097.54  791.58
 1107.35  785.35 1110.62  783.08 1117.15   778.9  1133.5  767.95 1140.03  763.86
 1146.57  759.13 1156.38  752.73 1166.18  745.61 1175.99  739.34 1182.53  734.64
  1185.8  732.67  1195.6  727.28 1205.41  721.45 1211.95  717.28 1218.49  713.28
 1225.02  709.02 1234.83  702.28 1241.37  698.17 1254.44  690.86 1257.71  689.19
 1267.52  683.77 1274.05  680.52 1280.59  676.51 1283.86   674.8 1306.74  664.23
 1313.28  661.35 1323.09  656.14 1326.35  654.54 1329.62  653.33 1336.16  651.78
 1339.43  651.52 1349.24  652.71  1352.5  652.86 1362.31   652.9 1378.65  652.32
 1385.19  650.74 1388.46  650.25    1395  649.67 1398.27   649.2 1411.34  647.63
 1424.42   646.3 1427.04  646.17 1434.22  646.42 1444.03  647.65 1450.57  648.05
 1463.64  650.06 1470.18  651.59 1476.72  652.72 1483.26  653.58 1489.79  653.84
 1496.33  653.69 1502.89  653.73 1519.27  654.24 1525.83  654.15 1542.22  654.12
 1545.49  653.87 1552.05  652.76  1558.6   651.2 1563.92  649.35 1565.16  648.84
 1571.71  645.05 1578.27  642.03 1581.55  641.09 1584.82  640.56 1590.82  639.24
 1594.65  638.68 1597.93  637.88 1604.49  635.85 1611.04  633.29 1624.15  628.97
 1630.71  626.97 1640.54  624.37 1647.09  622.75 1656.93  620.52 1670.04  617.33
 1679.87  614.76 1686.42  612.52  1689.7  610.99 1692.98   608.9 1702.81  603.44
 1706.09   601.8 1709.37  601.05 1715.92     600 1725.75  599.23 1738.86  598.01
 1745.42  597.72 1751.97  597.99 1761.81  597.67 1784.75  598.22  1791.3  598.55
 1807.69  600.13 1814.25  600.92 1824.08  601.65 1830.63  601.97 1843.74  602.41
 1853.58  602.54 1873.24  602.98 1886.35  602.84 1889.63  602.92 1906.02  603.79
  1922.4  604.35 1935.51  605.24 1945.35  605.77 1961.73  606.18 1971.56  606.66
 1984.67  607.05 2001.06  607.71 2020.73  608.31 2037.11  609.31 2046.95  609.82
 2056.78  610.44 2079.72   611.5 2089.55  612.12 2096.11   612.4 2115.77  612.98
 2125.61  613.19 2132.16  613.21 2141.99  613.48 2151.83  613.55 2161.66  613.85
 2168.21  613.81 2207.54  613.81 2230.49  613.37 2237.04  613.16 2256.71  612.98
 2266.54   612.7 2273.09  612.63 2299.31  612.98 2318.98  613.01 2325.53  613.09
 2328.81   613.4 2332.09  614.24 2338.64  616.63  2345.2  619.35 2361.59  627.12
 2371.42  632.46 2377.97   634.9 2381.25  635.58  2407.3  638.89 2423.86  641.15
 2440.24  644.28 2443.52  645.82  2446.8  648.55 2450.08  651.69 2453.35  654.36
 2456.63  655.29 2459.91  655.22 2466.46  655.44 2473.02  656.39  2476.3  656.54
 2492.68  656.17 2499.24  655.55 2502.52  655.47 2509.07  655.74 2515.63  656.25
 2522.18  657.25 2528.74  658.08  2535.3  659.29 2545.14  661.41 2551.69  663.18
 2561.53  665.67 2577.93  668.98 2587.76  670.71 2594.32  672.13 2600.88  673.14
    2614  674.83 2623.83  676.47 2636.95  678.09 2643.51  679.18 2653.35  680.07
  2659.9  680.83  2676.3  683.53 2682.86  684.73 2692.69  686.23 2699.25   687.1
 2712.37   689.1 2728.77  691.84  2738.6  693.74 2751.72  695.86    2755  696.11
 2761.56  696.96 2768.11  697.99 2777.95  698.84 2784.51  699.55 2804.18  701.42
 2810.74  701.67  2817.3  702.25 2823.86  703.03 2836.98  704.17 2856.65  705.23
 2873.05   705.5 2886.16  705.78    2896  705.48 2905.84  705.55  2912.4  705.75