Geom Title=R7_It4_Unsteady
Program Version=5.00
Viewing Rectangle=-5641908.29121241 ,-5498769.55766759 , 9274273.48728178 , 9235361.98567581 

BEGIN GEOM DESCRIPTION:
Mods during steady to unsteady include small rises in channel n (~0.001).  
END GEOM DESCRIPTION:
River Reach=Snake River     ,Reach 07        
Reach XY= 383 
-5500172.87858479242375.04204008-5500316.00854789242390.13846659
-5500374.89163219242395.92684083-5500662.83757859242424.24272909
-5501288.73101189242485.72718617-5501373.69278419242494.05656584
 -5501998.4313649242552.47409992-5502692.72820389242617.37718533
-5503036.14287139242649.44142567-5504918.89304289242700.04467092
-5505222.27399779242735.29460042-5506705.39767199242746.35494575
-5506863.16736959242713.96721525-5507072.32311919242717.98754842
-5509435.99785379242718.10270567 -5509632.8058599242716.71392892
-5509902.50873179242703.45476909-5511235.87876849242380.04432667
 -5511951.6516159242084.24012825-5512723.80262989241765.26307592
-5513391.05293579241562.16997817-5513818.68856349241520.07393375
 -5515216.4836689241382.33208325-5515521.74322819241352.28063417
-5516705.94295949241308.67278175-5517304.33513549241286.65871817
-5518160.14904059241324.43849825-5518443.02380299241336.94470683
-5519935.52475499241717.46592742-5521471.24182789242202.48267392
-5521673.66990069242266.37493458-5522579.08541269242441.10752475
-5523160.44579849242553.23754983 -5523455.0652889242610.07897158
-5524651.9323168  9242579.549177  -5525224.203819242323.80329742
-5525758.49047119241961.43689617-5526137.74430589241656.68160017
-5526730.80939269240918.55151475-5526995.0296647  9240275.538037
 -5527376.5971439239489.45069842-5527679.56635349239145.23353909
 -5528171.9062489238585.73925125-5528578.44316459238390.84790875
 -5528763.8187789238302.05477925-5529598.58187239238037.31318275
-5529884.43989649237946.62996517-5530842.27689159237812.66336958
-5531533.78436679237857.07010492-5531836.5734593 9237915.3400015
-5532952.03251459238130.08136992-5533741.08178949238357.22428834
-5534381.42302849238541.63139984-5534479.98779199238568.81769717
-5536441.56851449239110.65946125-5537166.6651613  9239409.567328
-5537429.47762789239517.96409284-5538311.74193949239687.13271775
-5538836.43774049239787.82739825-5539512.56270059239793.10133784
-5540070.9303501  9239797.365765-5541777.95351099239695.99621709
-5542271.11689469239711.18056992 -5543090.289797 9239934.4265145
-5544181.50119729240408.52891275-5545411.77268689241356.91153042
-5545575.57025959241558.56729509-5545755.4688498  9241779.995658
-5545812.58487739241850.29637042-5546518.67598489242988.99652084
-5546756.15516869243780.84270617-5547103.47238749244938.68651909
-5547455.93788989245566.65507942-5548214.99969199246611.57621792
-5548570.91170979247101.50174725-5549164.42889549248095.43447067
-5550054.24273259250036.65762233-5550293.0782129 9250591.2398465
-5550300.94302659250604.39664434-5550689.67879769251253.32448034
 -5550954.4079279251670.63270083-5551127.41840779251943.29652559
-5551218.83390739252153.81644575-5551419.3899366  9252615.773199
-5551786.34950459253325.36298717-5551933.22683559253807.03393983
-5552258.83609249254318.65201109-5552707.30337139254734.36902742
 -5552916.0027579254876.91139325-5553064.6218824 9254969.0263665
-5553230.44077659255151.55782558-5554453.37697899255478.29011175
-5556758.5298489 9257955.9888965-5556787.49074899257973.08006967
-5556912.20408229258056.01592742-5557065.45607239258201.11143775
-5557201.72515679258348.26468675-5557407.93603049258635.01148859
 -5557614.158715  9258956.642407-5558039.29894099259529.09500225
-5558447.37424029260173.32665342-5558527.12375269260280.43339458
-5558599.80930289260365.32790983  -5558756.971399260511.32138425
 -5558863.171637 9260593.9678725-5558947.70788529260655.03205483
-5559058.5163906 9260718.2747105-5559311.34495329260843.90864559
-5559493.36886749260919.97476642 -5559694.4061959260994.37291158
-5560231.1672605  9261175.271828-5560671.5755005 9261283.9979885
-5560697.90221959261286.16661933-5560706.68238569261284.64824967
-5560816.08997529261275.98881817-5561131.21500119261252.96819492
 -5561483.2887729261230.64343642-5561722.07405569261216.00304575
 -5562434.5703349261136.34342817-5563212.43032699260982.10850042
-5563823.7975425 9260781.9084415 -5564606.5341669260546.77964667
-5565248.36424719260374.38399408 -5565541.4968639260305.05440833
-5565959.3634813 9260206.1812465-5566627.79948049260060.57294192
 -5566812.2111859260057.53685875-5567029.35806049260064.38691067
-5567065.8750478 9260066.9768005-5567179.35644819260075.66051017
-5567378.36490849260115.10793784-5567812.50544439260163.56617425
-5567812.57073299260163.58159417-5568003.11628359260186.63666617
-5568240.7890365 9260202.4607815-5568296.36733759260211.67303342
-5568649.88533129260312.65084983 -5568966.7026119260394.57752325
-5569163.69270259260468.39168008-5569423.72269439260606.45177142
-5569665.6191921  9260777.060026-5569981.56147369261035.15301375
-5570016.07616849261072.10307109 -5570095.8424139261152.72922217
-5570501.44954149261588.03314159-5570696.17388959261800.73087892
-5571207.39793279262484.79217483-5571530.61054099262945.52977042
-5571564.23416139262994.57888492-5571925.86926489263493.18681159
-5572060.88244629263636.18849409 -5572195.9048149263779.21806367
 -5572233.015304 9263831.1700595 -5572667.9199469264437.45756083
 -5572685.2860539264468.29509759-5572997.31101959265010.43246475
-5573195.05242199265313.98041409-5573394.29907079265619.95847667
-5573589.84165869265820.52697317 -5573725.8308889265959.63922775
-5573900.35973849266110.06149909-5574024.20660359266213.48156783
-5574317.5337728  9266410.781042 -5574471.4317599266500.85927392
-5574694.21346569266613.64251292-5574916.76813869266709.87919708
 -5574980.352329 9266737.3965305-5575256.36883749266825.99182575
-5575450.29823959266886.73186175-5576087.00923659267063.58911958
-5576772.5784034  9267217.295177-5576788.22600999267221.03893592
-5577415.20671139267360.74666175-5577980.3377989  9267491.774943
-5578370.74220189267542.07635159-5578693.00533689267549.46216359
-5579065.29002539267546.19937484-5579458.90406749267496.81594342
-5580157.25798579267372.67708408-5580830.26221719267285.52076234
-5580997.0217261 9267270.0057015-5581468.52603259267222.85553334
-5582138.93085969267163.76674075-5582447.25767089267143.19197875
-5582721.53468139267126.77534492-5583347.23618589267116.46827892
-5584069.53198539267082.09531617-5584641.05249589267013.68469184
-5585387.55756459266929.75113267 -5585548.5631489266921.08481142
 -5585977.0193129266898.46346559-5586444.92848129266918.07563109
-5586645.04815979266926.94011467-5587262.28281769266857.18270825
-5587774.61643869266725.43329984-5587935.21979199266683.86415725
-5588590.3293741  9266524.753255-5588932.95073619266403.69575433
-5589073.35038979266342.93340867-5589297.39882619266234.54353359
-5589956.89160169265953.39973892-5590512.14967759265667.92918125
-5591065.4651719   9265381.90121-5591138.5171911 9265344.0213645
-5591613.84071559265047.61775783 -5592088.5894389264701.83465675
-5592347.55808019264549.02918809-5592371.36905619264544.49835725
-5592598.55659399264398.17614334 -5593250.3548319263988.98568875
-5593646.14340959263819.66942634 -5593958.7195569263644.64582625
-5594142.08631529263491.90400575-5594356.12361689263297.27414567
-5594729.44800149262972.81285233-5594931.44267619262836.83084083
 -5595057.835796 9262774.9477625  -5595389.511979262614.78699359
-5595931.78581989262394.56696159-5596292.2969098  9262294.698723
-5596360.74887269262276.28701442  -5596771.22607 9262208.9567685
-5597130.0849324   9262227.61618-5597472.7030135  9262279.344423
-5597749.37864139262356.17005675 -5597885.0506149262392.93441892
-5598111.81820519262488.51296792-5598438.7952415 9262622.5897995
-5598821.35025069262774.08260675-5599053.44558699262864.81930192
-5599622.60947499263038.73922967 -5599860.9636579263120.69411825
 -5600182.2546819263226.71326317-5600271.25220659263268.60655209
-5600378.83040349263319.12646417 -5600506.0174859263382.55809584
-5600859.75431039263473.82497367-5601094.3388149   9263571.31428
-5601430.69739419263674.79110717-5601699.5597173 9263792.8118685
-5601953.67075769263894.97800275-5602054.32245929263982.80098984
 -5602216.3368999264073.03276475-5602339.05089249264129.21966025
-5602636.35836869264266.40245675-5602955.92892379264439.69902617
-5603116.22289459264554.12694692 -5603319.5830529264687.13357067
 -5603360.6062649264705.22014867 -5603527.8700379264782.36763217
-5603778.51225239264881.65450709-5604232.82302359265189.90913992
-5604662.14204679265576.24170059-5604782.48760659265685.19095775
-5605360.75777559266216.08392483-5605860.63964979266695.24011875
 -5605912.1999149266738.39980933-5606041.2905351   9266845.32348
  -5606369.490019267240.15503942-5606523.00085789267400.14159609
  -5606622.36352  9267501.987521-5606854.6242103 9267703.4536535
-5607002.50317969267835.41861267-5607577.68838099268396.30200534
-5608121.81196469268914.80818617-5608348.62712789269104.73890867
-5608772.31427259269463.02001625-5608885.64311419269549.74458034
-5609008.8059255  9269647.061971-5609316.43195079269981.51176142
-5609583.12301849270306.13873684-5609714.53909419270540.80066909
-5609884.71296649270854.48901809-5609996.38892419271016.72491409
-5610172.36987149271229.24023709-5610422.9185829 9271595.0876025
-5610579.60429319271733.26613192-5610745.32935549271851.06379658
-5611040.29234819272040.93579217-5611158.5775446  9272089.907479
-5611274.39686689272140.35488467-5611818.67891479272392.21953842
  -5611996.25041  9272478.032687-5612397.15610429272656.47261884
-5612600.5441489  9272746.390418-5612927.03168499272882.36324317
-5613274.36990099273008.95583775-5613640.30289619273101.07212333
-5613857.2998375 9273143.0293885-5614236.7255878  9273127.602254
-5614651.9475264  9273092.114136 -5615223.3781429272964.94739559
-5615436.84720339272901.41996358-5615645.57546049272806.04023309
 -5616163.1912239272559.27891558-5616599.33470779272290.91855992
  -5616645.713889272261.03968267-5617114.9540833 9271949.3585475
-5617458.71258219271644.42838309-5617613.27067199271533.90695059
-5617702.8164246 9271444.7335725-5617703.4722632   9271444.09381
-5617783.75983239271365.70157833-5617969.78078579271055.65462625
-5618123.30836589270846.46541208-5618126.20173279270843.07467084
-5618239.90787019270687.85483692-5618500.3843833  9270334.206266
-5618722.97055239270026.74132975-5618957.05341759269705.69407158
-5619253.18405889269409.80325917-5619266.68796889269396.63038525
-5619438.45862269269257.42987625-5619598.72273789269088.83047592
-5619768.45304149268940.96200525-5620100.17285049268694.64097558
-5620326.61268629268525.49695692-5620559.03643399268417.35544092
-5620833.57787969268288.53384817 -5621271.263684   9268013.62823
-5621771.40244759267744.89025042-5622048.98194499267577.86860283
-5622203.68603189267483.79923717-5622648.47779319267162.08104859
-5623009.55056189266887.93330292 -5623278.676992  9266661.438021
-5623353.14501899266631.18644109-5623493.36586719266575.61207717
-5623738.11636199266527.78113608-5624124.44728219266388.93200434
-5624323.00987719266344.37205409-5624351.10463729266345.61614608
-5624621.1825091 9266347.3854995-5624849.08986179266369.74667525
-5625249.08118779266372.18236592-5625868.96380629266370.42777625
-5626407.5404849 9266363.3736565-5627149.75750459266325.50890284
-5627335.06422059266319.08404692-5627684.33255089266309.28813475
-5628103.4773818 9266275.2793445-5628607.14894669266173.60074209
-5628957.10001849266126.98567783-5629150.99136299266102.10219742
-5629381.35934059266071.71774375-5630134.57929079265962.66710883
-5631472.68455419265748.98971467-5631644.82659839265626.51390975
-5631943.3535603 9265280.2222795-5632134.63237729265121.32988075
-5632321.46074379265014.74708867-5632390.70469979264976.07426575
-5632584.82668689264916.38606492-5632838.11390999264842.27171183
-5633065.98714189264805.07985708-5633245.93199199264743.98975617
-5633304.66022099264723.34839325-5633572.15574899264578.36869634
-5633788.44960769264438.29581375-5634039.78867199264274.97691467
-5634324.40719719264432.78598225-5634901.7666067  9264207.120095
-5634912.94145319264203.63749042-5635030.53734659263862.79893325
 -5635560.1484929263619.59010208-5635606.19531599263599.95168992
-5636205.6636052  9263332.621844-5636800.73820259263066.28477825
-5637081.24453129262931.05899883-5637434.68870629262682.13462792
-5638260.12111059262009.88170734-5638620.12399949261571.76250483
-5638775.4366809 9261365.1474325-5639022.23343149261002.18687234
-5639244.42130729260715.36625175-5639482.2059366  9260432.292999
-5639492.81680789260422.56565625-5639747.81367319260153.95530108
-5639911.51971059259963.73422483-5640119.4940321  9259718.562143
-5640180.1340027  9259647.097719 -5640418.3313619259353.87619258
-5640504.97029539259234.70549917
Rch Text X Y=-5535255.9015124,9246589.9579049
Reverse River Text= 0 

Type RM Length L Ch R = 1 ,69.4768 ,2880.42,3310.03,3713.08
BEGIN DESCRIPTION:
XS DS of Little Goose Dam and location of Little Goose Dam tailwater Computaion Point Location.
END DESCRIPTION:
XS GIS Cut Line=4
-5509019.0200131 9240547.0630845-5508488.06667879241586.53475884
-5508521.71884249244005.73694142-5508817.10801549244585.29844633
Node Last Edited Time=Apr/08/2016 10:09:50
#Sta/Elev= 495 
       0  873.37   16.39  871.05   26.23  870.04   32.79  869.04   42.62  866.97
   55.74  864.94    62.3  863.48   75.41  861.33    91.8  858.31  101.64  856.25
  134.43  849.86  137.71  849.11  147.54  846.44  160.66  843.09  167.21  841.53
  170.49  840.48  190.17  833.12  196.72   830.9  213.12  826.03  226.23  821.44
  242.63   815.6   262.3  806.64  272.13  802.64  285.25  797.75  295.08  794.59
  314.76   789.8  327.87  786.74  337.71  784.82  344.27  783.41  350.82  782.36
  357.38  780.97  373.77  778.69  383.61  777.08  393.45  775.96     400  774.61
  413.12   771.1  439.35   764.3  449.18  762.04  452.46  760.38  455.74  758.15
   462.3  754.65  481.97  743.39  488.53  739.84  495.09   736.1  501.64  732.84
   508.2  729.23  518.04  724.85  527.87  720.98  531.15  719.83  534.43  719.14
  540.99  718.68  544.27  715.31  547.55  708.48  550.83  702.25   554.1  699.49
  567.22  693.12  583.61  684.93  593.45  680.61  600.01  678.37  609.84  675.69
  613.12     675  622.96  673.46  629.51  671.84  636.07   671.2  652.47  671.24
  659.02   670.8  668.86  670.53  672.14     670  675.42  668.75  681.97  665.25
  685.25  664.77  688.53   665.1  698.37  665.37  718.04  665.22   724.6  664.88
  731.15   664.9  744.27   664.6  747.55  664.42  750.83  663.79  763.94  657.82
   770.5  655.25  773.78  653.44  777.06  651.12  780.34  648.34  783.61  644.41
  790.17  633.87  793.45  629.83  796.73  627.97  800.01  627.48   816.4  628.38
  822.96  628.49   832.8   628.3  839.35  627.58  842.63  626.57  845.91  624.66
  852.47  620.45  868.86  610.74  872.14  609.61  881.98  606.97  888.53  605.44
  895.09  603.32  898.37  600.85  901.65  597.81  904.93  595.83  908.21  595.07
  914.76  594.87  918.04   595.1  921.32  594.79  931.16  592.36  934.44  589.33
  937.71  582.97  940.99  575.75  944.27  571.11  947.55  570.11  954.11  571.09
  967.22  571.29  980.34  570.78  983.62  570.41  990.17   568.9  993.45  569.11
  996.73  570.25 1003.29  573.29 1006.57  574.39 1009.85  574.85  1016.4   574.9
 1029.52  574.76 1042.63  575.14 1045.91  575.13 1049.19  574.48 1052.47  573.41
 1059.03  570.29 1068.86  564.34  1078.7   557.6 1081.98  555.53 1085.26   554.3
 1088.54  553.78 1095.09  553.58 1101.65  553.63 1111.49  553.42  1124.6  553.34
 1137.72   553.8 1150.83  553.57 1160.67  553.88 1167.23  553.94 1177.06  553.78
 1183.62  553.49 1190.17   554.8 1196.15  544.98 1196.73  524.98 1200.01  524.98
 1203.29  524.98 1206.57  524.98 1406.55  524.98 1409.83  524.98  1413.1  524.98
 1413.51  524.98 1414.36  524.98 1416.38   545.2 1419.66  554.89 1422.94  554.89
 1426.22  553.11  1429.5  550.32 1432.78  549.53 1442.61  549.33 1445.89  549.43
    1459  549.08 1465.56  549.01 1495.06  548.29 1518.01  548.11 1524.57  548.15
 1534.41  547.96 1554.08  548.29 1560.63  548.64 1567.19  549.29 1573.75  550.51
  1580.3  551.34 1603.25  551.93 1609.81  552.58 1622.92  553.08 1639.31   553.4
 1645.87  553.23 1655.71   553.4 1678.65  553.39 1691.77  553.05 1698.32  553.87
  1701.6  554.09 1714.72  554.33    1718  554.63 1721.27  554.54 1724.55  553.78
 1731.11  550.54 1737.67  546.92 1746.98  543.21 1749.09  543.45 1754.06  544.71
 1757.34  544.44 1767.17  542.73 1770.45  541.25 1777.01  535.99 1780.28  533.65
 1783.56  532.03 1786.84  530.92  1793.4  529.68 1799.95  528.91 1806.51  528.42
 1809.79  527.99 1816.35  526.47 1829.46  521.62 1842.57   516.5 1845.85  515.72
 1852.41  515.43 1858.97  515.87 1872.08  517.05 1881.91  517.79 1888.47  518.14
 1908.14     519 1921.26  519.07 1924.53  518.98 1937.65  518.12 1954.04  517.29
 1967.15  517.32 1970.43  517.19 1976.99  515.93 1983.54  515.49  1990.1  515.56
 1993.38  515.41 2003.21  514.43 2013.05  513.97 2019.61  513.98 2026.16  514.26
 2029.44  514.14    2036  513.48 2042.56  513.29 2049.11  513.44 2058.95  513.87
 2062.23  513.74 2068.78  513.07 2075.34  512.79 2088.45  512.72 2101.57  512.37
 2117.96   511.6 2127.79   511.6 2134.35   512.1 2137.63  511.91 2144.18  511.08
 2150.74  510.66 2160.58  511.03 2170.41  511.22 2180.25  512.14 2183.52  511.99
 2190.08  510.98 2199.92  511.06 2206.47  510.98 2226.14  509.84 2235.98  509.36
 2252.37  508.93  2262.2  508.47 2272.04  507.74  2278.6  507.39 2288.43  507.26
 2304.82  506.56 2324.49  506.02 2334.33  505.95 2340.88  506.03    2354   506.5
 2360.55  507.14 2367.11  508.23 2373.67   507.7 2376.95  507.63  2383.5  508.54
 2386.78  508.38 2393.34  507.23 2396.62  507.13 2409.73  507.66 2419.56  507.76
  2429.4  508.08 2442.51  508.68 2465.46  509.03 2478.57  509.46 2498.24  510.53
 2508.08  511.37 2517.91  512.03 2527.75  513.11 2537.58  514.38 2540.86  514.59
  2550.7  514.68 2573.65  515.57 2590.04  516.63 2593.32  516.64 2603.15  516.28
 2612.99  516.77 2622.82   516.3  2626.1  516.31 2642.49  516.78  2655.6  517.42
 2662.16  517.56 2668.72   517.5 2685.11  517.04 2694.94   516.9 2708.06  516.23
 2724.45   515.1 2727.73     515 2740.84  515.21 2757.23  514.61 2773.62  513.67
 2780.18  512.92 2786.74  511.82 2796.57  510.47 2799.85  510.24 2829.35  509.38
 2839.19  509.24 2855.58  509.25  2868.7   509.6 2875.25  509.61 2885.09  509.41
  2898.2  508.13 2908.04  507.46 2917.87  506.33 2934.26  504.02 2947.38  502.53
 2960.49  500.51 2967.04  499.75  2973.6  499.57 2976.88  499.86 2983.44  500.84
 2986.72  500.75 2993.27  499.86 2996.55  499.88 3012.94  501.79 3022.78  502.28
 3039.17   502.6 3052.28  502.73 3062.12  503.97  3065.4  504.18 3078.51  504.45
 3081.79   504.3 3091.62  502.38 3101.46  502.92 3108.01  502.75 3111.29  502.39
 3121.13  499.67 3127.68  499.34 3130.96  499.57  3140.8  501.53 3147.35   501.8
 3150.63  501.66 3160.47  500.62 3167.02  500.47 3176.86  500.81 3186.69  501.78
 3196.53  503.04  3216.2  505.82 3239.15  509.45 3252.26  511.69 3265.37  512.94
 3275.21  514.33 3285.04  515.36 3294.88  517.25 3307.99  520.82 3317.83  523.13
 3327.66  526.24 3330.94   527.1 3340.77  528.29 3344.05  529.12 3350.61  531.57
 3360.44  533.83    3367  535.04 3393.23  539.61 3406.34  544.65  3412.9  545.46
 3419.45  547.06 3422.73  548.16 3426.01  549.76 3432.57   554.1 3435.85  555.13
 3455.52  555.27 3468.63  555.43 3485.02  555.03 3498.13  555.21 3507.97  555.21
 3524.36  555.95  3534.2  556.47 3540.75  557.14 3547.31  557.53 3553.87  557.61
  3563.7  557.28 3566.98  557.57 3570.26  558.39 3573.54  559.87 3576.81  562.36
 3583.37  568.65 3586.65  573.67 3589.92  580.71 3593.19  588.48 3596.46  592.48
 3599.73  596.08 3602.99  599.03 3609.53  603.41  3612.8  606.18 3622.61  616.54
 3625.88  621.19 3632.41  629.35 3635.68  632.81 3638.95  635.84 3642.22   639.5
 3645.49  646.21 3648.76  653.55 3652.03  657.32 3658.56  661.39  3665.1  665.24
 3671.64  668.58 3674.91  669.77 3684.72   671.2 3691.25  671.33 3694.52  670.85
 3697.79  669.03 3701.06  665.09 3704.33  658.62  3707.6  651.54 3710.87  645.94
 3714.14  645.22  3717.4  645.48 3730.48  647.96 3737.02  647.97 3746.82  646.22
 3753.36  646.32 3756.63  646.88  3759.9  649.72 3763.17  657.43 3766.44   665.7
 3769.71  675.35 3772.97  685.78 3776.24  695.46 3779.51  704.75 3782.78  712.74
 3786.05  716.79 3789.32  717.48 3795.86  718.18 3799.13  719.45 3802.39  722.26
 3805.66  726.46  3812.2  736.07 3815.47     740 3818.74  743.25 3822.01  745.24
 3825.28  746.49 3828.55  747.29 3831.81  749.06 3835.08  752.56 3841.62  760.45
 3844.89  762.77 3851.43  765.93 3861.23  769.54 3867.77  771.28 3874.31  772.77
 3897.19  777.13    3907  779.39 3913.54  781.08 3920.07  782.98 3926.61  784.43
 3933.15  786.07 3939.69   787.9 3949.49  790.16 3962.57  793.76 3969.11  795.99
 3978.91  800.18 3988.72  805.08 4005.06  814.22 4014.87   819.5 4034.48  829.71
 4037.75  831.67 4041.02  835.49 4047.56  845.42 4050.83  847.73  4054.1  849.08
 4067.17  855.08 4073.71  857.54 4083.52   861.7 4093.32  865.32  4106.4  869.29
 4116.21  872.66 4119.47  873.43 4126.01   875.4 4132.55  877.68 4145.62  880.53
  4168.5     887 4178.31  890.76 4191.39  894.39 4197.92  895.94 4204.46  897.71
 4214.27  900.62  4220.8  903.25 4227.34  906.34 4233.88   908.7 4237.15   910.1
#Mann= 7 ,-1 , 0 
       0     .05       0 1196.15    .025       0 1413.51     .05       0
 1414.36      .1       0 1746.98     .05       0 1749.09    .026       0
 3393.23     .05       0
Bank Sta=1749.09,3393.23
XS Rating Curve= 0 ,0
XS HTab Starting El and Incr=499.84,0.2814, 200 
XS HTab Horizontal Distribution= 5 , 5 , 5 
Exp/Cntr=0.3,0.1

Type RM Length L Ch R = 1 ,68.8472 ,6001.07,5573.5,5209.71
XS GIS Cut Line=5
-5510237.96869079240505.93291742-5511131.61519749240846.19175133
-5511505.52586699241665.05592725-5512014.0445349  9242726.962268
-5512559.95420429244028.17160783
Node Last Edited Time=Apr/08/2016 10:10:15
#Sta/Elev= 495 
       0   892.3    6.55  890.98    13.1  889.33    26.2  886.42   36.02  884.42
    52.4  881.28   62.22  879.01   72.04  877.41   85.14   875.9  101.52  872.91
  108.07  871.86  121.17  870.37  134.27  867.82  137.54  867.29  150.64   866.2
  157.19  864.92  163.74  863.91  176.84  861.17  196.49  857.65  199.76     857
  206.31  855.99  216.13  853.93  225.96   852.4  232.51  850.64  248.88  845.87
  258.71  843.36  265.26  841.85  271.81  840.52  281.63  838.21  294.73  834.77
  304.55   831.9  314.38  828.44  317.65  827.49   324.2  825.28  330.75  822.48
  343.85  817.43  353.67  813.14  360.22  810.43  370.05  806.53   376.6  804.07
  379.87  802.62   389.7  797.63  392.97  796.19  399.52   792.9   402.8  791.55
  409.35  788.55   415.9  785.86  422.44  783.03  432.27  779.35  445.37  775.06
  455.19  771.23  461.74  768.95  471.57  765.31  481.39  762.06  484.67  761.15
  494.49  758.98  501.04  757.67  507.59  756.64  514.14  755.31  520.69  754.23
  527.24   753.3  543.61  751.35  553.44  749.83  559.98  749.15  563.26  748.47
  586.18  741.32  592.73  739.56  599.28  737.63  602.56  736.52  615.66  732.53
  622.21  730.97  625.48  729.94  628.75  728.55  638.58  723.71  645.13  721.86
  651.68  719.56  654.95  718.78  658.23  717.42   661.5  715.26  671.33  708.22
   674.6   706.4  681.15   703.2   687.7   700.6  697.52  696.26  710.62  690.06
  717.17  685.64  720.45   683.7     727  680.87  733.55  677.66  743.37  672.48
  749.92  669.27  759.74  664.16  769.57  658.73  776.12  654.94  795.77  644.73
  812.14  634.78  815.42  633.09  821.97  630.04  825.24  628.37  835.06   622.4
  841.61  617.89  848.16  613.69  854.71  609.09  861.26  605.17  864.54  603.72
  867.81  602.73  871.09  602.17  874.36  601.96  887.46  601.68  890.74  601.43
  894.01  600.88  900.56  600.18  910.38  599.67  926.76  599.42  936.58  599.65
  949.68  599.64  956.23  599.53  962.78  599.94   972.6  600.28  975.87  600.27
  985.69  599.92  995.51  599.44 1005.33  598.77 1015.15  598.76  1021.7   598.6
 1034.79  598.58 1047.89  598.88 1060.98  598.71 1067.53   598.8 1074.07  598.67
 1090.44  599.07 1093.71  599.08 1113.36  598.28  1119.9   598.1 1139.54  597.96
 1149.36  597.76 1162.46   597.3 1191.92  597.31 1211.56  597.04 1221.38  596.77
 1234.47  596.59 1260.66  596.59 1266.35  596.51 1286.85  596.28 1326.13  595.52
 1345.77   595.3 1388.33   595.1 1407.97  594.96 1421.06  594.97 1430.88  594.81
  1440.7  594.48 1447.25   594.4 1457.07   594.1 1473.44  593.32 1483.26  593.22
 1496.35  592.55 1515.99  590.85 1529.09  589.28 1542.18  587.83 1568.37  584.67
 1578.19  583.91 1591.28  582.66 1607.65  581.96  1614.2  581.88 1624.02  581.33
 1630.57   581.4 1637.11   581.3 1643.66  580.87 1646.93   580.9 1653.48  580.49
 1660.03   580.3 1669.85  580.74 1686.21  580.06 1696.03  579.19 1709.13  578.67
  1712.4  578.01  1725.5   577.3 1728.77  577.02 1736.18  576.01 1745.14  574.28
 1751.68  572.91  1761.5  570.59 1768.05  569.17 1771.32  568.28 1777.87   566.8
 1787.69  563.95 1797.51  560.73 1804.06  558.98 1810.61  557.57 1820.43  554.97
 1826.97  553.94 1833.52  553.64 1843.34  553.61 1859.71  552.88 1866.27  552.77
 1869.55  552.31 1872.83  551.07 1885.95  543.99 1888.19  543.17 1892.51  541.61
 1895.79  540.08 1905.63  535.21 1912.19  531.43 1915.47  529.13 1918.75  527.28
 1925.31  524.23 1928.59  523.06 1931.87  522.57 1941.71  522.25 1951.54  521.76
  1958.1  520.57 1961.38  520.13 1967.94  519.56 1977.78  518.88  1990.9   518.2
 2000.74  517.48 2010.58  517.33 2020.42  516.28 2026.97   515.8 2036.81  515.26
 2046.65  515.08 2063.05  514.68 2076.17  514.19 2092.57  513.89 2108.97  513.43
  2118.8  512.79  2135.2  512.54 2154.88  511.85 2164.72  511.63  2184.4  511.39
 2210.63  510.84 2220.47  510.89 2233.59  510.65 2246.71  510.59 2256.55  510.26
 2266.39  510.24 2276.23   509.9 2292.62  509.74 2305.74  509.72 2318.86  509.43
 2335.26  509.24  2345.1  509.21 2354.94  508.94 2371.33  508.74 2384.45  508.42
 2397.57  508.42 2404.13  508.34 2427.09  507.83 2440.21  507.48 2463.16  507.02
    2473  506.64 2482.84  506.47  2489.4  506.21 2499.24  506.02 2518.92  505.47
 2525.48   505.2 2528.76  505.64  2538.6  508.69 2545.16  510.42 2548.43  511.07
 2554.99  511.48 2561.55  511.44 2568.11  511.14 2577.95  511.19 2587.79  510.08
 2600.91  510.02 2607.47  509.88 2614.03  509.55 2620.59  509.05 2623.87  508.98
 2630.43  509.13 2643.54  509.94 2646.82  509.97 2656.66  509.02 2659.94  509.11
 2673.06  510.52 2676.34  510.67  2682.9  510.17 2686.18  510.13 2696.02  510.54
 2712.42  510.79 2728.81  511.65 2738.65  511.65 2755.05  512.16 2764.89     512
 2774.73  512.68 2781.29  513.33 2784.57  513.86 2791.13  515.33 2794.41  514.89
 2797.69  513.91 2800.97  513.25 2804.25   513.2  2810.8   513.7  2827.2  515.17
 2837.04  516.19 2846.88  517.31    2860  518.16 2869.84  519.16 2879.68  519.76
 2889.52  519.68 2905.91  520.19 2912.47  520.62 2919.03  521.37 2925.59  522.77
 2932.15  524.73 2941.99   528.2 2951.83  532.17 2955.11  533.72 2961.67  537.25
 2964.95  538.36 2978.06  541.17 2981.34   541.7 2994.46  543.85  3004.3  544.97
 3007.58  545.46 3010.86   546.4 3014.14  547.66  3020.7  551.51 3023.98  554.02
 3030.54  560.79 3033.82  563.38 3040.37  567.38 3046.91  570.93 3053.46  574.28
 3060.01   578.1 3069.83  584.44 3076.38     589 3079.65  591.04  3086.2  595.83
 3089.48  598.63 3092.75  600.97 3096.02  602.78  3099.3  603.27 3102.57  603.03
 3105.85   602.5 3115.67  600.55 3118.94  599.79 3125.49  597.95 3135.31  595.63
 3151.68  591.16 3158.23  589.21 3164.78  587.48 3171.32  585.59  3174.6  584.86
 3177.87  583.85 3184.42  581.48 3194.24  579.56 3210.61  577.35 3217.16  576.74
 3226.98  575.51 3240.08  574.25  3249.9  573.23 3256.45  572.69 3282.64  569.75
 3292.46  568.19 3299.01  567.57 3305.56  567.25  3312.1  566.73 3331.75  564.72
 3341.57  563.51 3357.94  561.19 3361.21  560.67 3374.31  558.16 3380.86  556.67
 3387.41  554.71 3393.95  552.41  3400.5  549.93 3403.78  549.05 3410.32   548.2
 3423.42  547.76 3436.51  547.23 3443.06  546.69 3449.61  545.89 3456.16  545.34
 3462.71  545.09 3472.53  544.45 3479.08  544.46 3485.62  544.28 3498.72   544.3
 3511.82  544.84 3518.36  545.26 3528.19  545.34 3531.46  545.61 3538.01  546.78
 3541.28  546.92 3547.83  546.38 3557.65  545.24 3570.75  544.85 3580.57  545.13
 3587.12  545.43 3593.66  545.05 3606.76  545.03 3613.31  545.31 3623.13   546.4
 3629.68  547.75 3636.23  549.58 3646.05  552.59 3659.14   557.2 3665.69  559.98
 3668.97  561.21 3678.79  564.52 3698.43   570.6 3718.08  577.84 3724.62  579.53
 3731.17  581.45 3740.99  584.06 3747.54  585.34 3754.09  585.97 3760.64  586.09
 3770.46  586.06 3780.28   586.2 3786.83   586.6 3793.38   587.3 3796.65  588.13
  3803.2  590.59 3806.47  592.01 3816.29  596.56 3822.84  599.34 3842.49   608.2
 3849.03   610.8 3858.86  615.07 3868.68  619.97 3875.23  623.72  3878.5  625.15
 3881.77   626.2 3885.05  626.96 3888.32  627.35 3904.69   628.4 3911.24  628.59
 3921.06   628.6 3924.33  628.86 3930.88  630.74 3934.16  631.36 3937.43  631.58
 3947.25  631.63 3960.35  632.34 3963.62  633.11 3973.44  636.04 3976.72   636.8
 3979.99  637.19 3983.27  637.13 3993.09  635.48 3996.36   634.8 3999.64  633.67
 4006.18  632.74 4012.73  632.56 4016.01   632.7 4022.55  633.73 4025.83  633.88
 4035.65  633.87 4045.47  634.29 4058.57  634.17 4071.66  634.41 4078.21  634.68
 4084.76  634.76 4097.85  635.28 4101.13  635.53 4114.22  635.74 4120.77  636.08
 4127.32  636.14 4133.87  636.46 4140.42  636.58 4150.24  637.16 4156.79  637.23
 4163.33  637.48 4169.88  637.32 4176.43  637.46 4189.53   638.4 4202.62  639.13
  4205.9  639.47 4215.72  639.65 4228.81  640.48 4248.46  642.13 4251.73  642.52
 4264.83  643.68 4274.65  644.73 4284.47   645.9 4291.02  647.15 4304.11  650.18
 4317.21  652.45 4320.48  653.28 4327.03  655.61 4333.58  658.38 4336.85  659.35
  4343.4  660.96 4349.95  662.29 4359.77  664.57 4369.59  666.44 4385.96  669.88
 4402.33  672.82 4425.25  677.04  4431.8  678.02 4438.35  679.24 4444.89  680.77
#Mann= 5 ,-1 , 0 